
     RDKit          3D

 27 28  0  0  0  0  0  0  0  0999 V2000
    7.5620   70.7910   29.4700 C   0  0  0  0  0  0  0  0  0  0  0  0
    7.5770   70.0800   26.9570 C   0  0  2  0  0  0  0  0  0  0  0  0
    6.9300   70.0610   28.2390 O   0  0  0  0  0  0  0  0  0  0  0  0
    6.7850   69.3060   25.9000 C   0  0  2  0  0  0  0  0  0  0  0  0
    5.5530   69.9970   25.8660 N   0  0  0  0  0  0  0  0  0  0  0  0
    6.7380   67.8210   26.2580 C   0  0  1  0  0  0  0  0  0  0  0  0
    5.9880   67.1640   25.2820 O   0  0  0  0  0  0  0  0  0  0  0  0
    8.1830   67.2040   26.2630 C   0  0  1  0  0  0  0  0  0  0  0  0
    8.7500   67.4620   24.9530 O   0  0  0  0  0  0  0  0  0  0  0  0
    8.9900   67.9690   27.4100 C   0  0  2  0  0  0  0  0  0  0  0  0
    8.9290   69.4590   27.0990 O   0  0  0  0  0  0  0  0  0  0  0  0
   10.4370   67.4740   27.5500 C   0  0  0  0  0  0  0  0  0  0  0  0
   11.2830   67.9210   26.5090 O   0  0  0  0  0  0  0  0  0  0  0  0
    4.8840   70.3390   24.7300 C   0  0  0  0  0  0  0  0  0  0  0  0
    5.4270   70.4180   23.6130 O   0  0  0  0  0  0  0  0  0  0  0  0
    3.3990   70.6290   24.8530 C   0  0  0  0  0  0  0  0  0  0  0  0
    5.0280   66.1050   25.4310 C   0  0  1  0  0  0  0  0  0  0  0  0
    3.9780   65.9460   24.3490 C   0  0  2  0  0  0  0  0  0  0  0  0
    3.1200   67.0790   24.4450 O   0  0  0  0  0  0  0  0  0  0  0  0
    3.2350   64.6250   24.5350 C   0  0  1  0  0  0  0  0  0  0  0  0
    2.2520   64.5010   23.5120 O   0  0  0  0  0  0  0  0  0  0  0  0
    4.2520   63.3840   24.4260 C   0  0  1  0  0  0  0  0  0  0  0  0
    4.9520   63.3870   23.1730 O   0  0  0  0  0  0  0  0  0  0  0  0
    5.3360   63.5510   25.5490 C   0  0  2  0  0  0  0  0  0  0  0  0
    5.9650   64.9350   25.4040 O   0  0  0  0  0  0  0  0  0  0  0  0
    6.5170   62.6640   25.9000 C   0  0  0  0  0  0  0  0  0  0  0  0
    7.5540   62.6870   26.8680 O   0  0  0  0  0  0  0  0  0  0  0  0
  1  3  1  0
  2  3  1  1
  2  4  1  0
  2 11  1  0
  4  5  1  1
  4  6  1  0
  5 14  1  0
  6  7  1  6
  6  8  1  0
 17  7  1  6
  8  9  1  6
  8 10  1  0
 10 11  1  0
 10 12  1  6
 12 13  1  0
 14 15  1  0
 14 16  1  0
 17 18  1  0
 17 25  1  0
 18 19  1  1
 18 20  1  0
 20 21  1  6
 20 22  1  0
 22 23  1  6
 22 24  1  0
 24 25  1  0
 24 26  1  6
 26 27  1  0
M  END
