
     RDKit          3D

 16 15  0  0  0  0  0  0  0  0999 V2000
    6.6580   30.4490   21.2190 P   0  0  0  0  0  0  0  0  0  0  0  0
    7.5010   29.4170   20.6330 O   0  0  0  0  0  0  0  0  0  0  0  0
    7.2880   31.8080   21.1410 O   0  0  0  0  0  0  0  0  0  0  0  0
    6.2910   30.1240   22.6740 O   0  0  0  0  0  0  0  0  0  0  0  0
    5.0200   30.5930   20.3950 C   0  0  0  0  0  0  0  0  0  0  0  0
    4.5090   29.2410   20.0060 C   0  0  2  0  0  0  0  0  0  0  0  0
    4.0980   28.4190   20.8520 O   0  0  0  0  0  0  0  0  0  0  0  0
    4.5900   28.8900   18.7690 N   0  0  0  0  0  0  0  0  0  0  0  0
    4.1560   27.6930   18.1680 C   0  0  2  0  0  0  0  0  0  0  0  0
    4.8490   26.4440   18.5630 C   0  0  0  0  0  0  0  0  0  0  0  0
    5.8790   26.4810   19.3140 O   0  0  0  0  0  0  0  0  0  0  0  0
    4.4460   25.3280   18.1690 O   0  0  0  0  0  0  0  0  0  0  0  0
    4.1760   27.8260   16.5960 C   0  0  0  0  0  0  0  0  0  0  0  0
    5.5510   27.8630   15.9500 C   0  0  0  0  0  0  0  0  0  0  0  0
    5.6990   28.1480   14.6970 O   0  0  0  0  0  0  0  0  0  0  0  0
    6.5650   27.6120   16.6710 O   0  0  0  0  0  0  0  0  0  0  0  0
  2  1  1  0
  3  1  1  0
  4  1  1  0
  5  1  1  0
  6  5  1  0
  6  7  1  1
  8  6  1  0
  9  8  1  0
 10  9  1  0
 11 10  1  0
 12 10  1  0
  9 13  1  6
 14 13  1  0
 15 14  1  0
 16 14  1  0
M  END
