
     RDKit          3D

 16 15  0  0  0  0  0  0  0  0999 V2000
   21.9170   18.3830   41.9900 P   0  0  0  0  0  0  0  0  0  0  0  0
   23.1990   18.5030   41.2500 O   0  0  0  0  0  0  0  0  0  0  0  0
   20.7570   18.1670   41.0880 O   0  0  0  0  0  0  0  0  0  0  0  0
   21.7140   19.7100   42.7850 O   0  0  0  0  0  0  0  0  0  0  0  0
   21.9100   17.0720   43.2460 C   0  0  0  0  0  0  0  0  0  0  0  0
   23.2080   16.9960   43.9770 C   0  0  0  0  0  0  0  0  0  0  0  0
   23.5230   17.8920   44.8150 O   0  0  0  0  0  0  0  0  0  0  0  0
   23.9940   15.9790   43.7460 N   0  0  0  0  0  0  0  0  0  0  0  0
   25.2450   15.7520   44.3890 C   0  0  2  0  0  0  0  0  0  0  0  0
   26.3360   16.7450   44.0970 C   0  0  0  0  0  0  0  0  0  0  0  0
   26.1950   17.7030   43.2800 O   0  0  0  0  0  0  0  0  0  0  0  0
   27.4160   16.6540   44.6870 O   0  0  0  0  0  0  0  0  0  0  0  0
   25.8320   14.3160   44.0370 C   0  0  0  0  0  0  0  0  0  0  0  0
   26.0720   14.1080   42.5520 C   0  0  0  0  0  0  0  0  0  0  0  0
   26.1670   12.8920   42.1490 O   0  0  0  0  0  0  0  0  0  0  0  0
   26.2080   15.0380   41.7150 O   0  0  0  0  0  0  0  0  0  0  0  0
  2  1  1  0
  3  1  1  0
  4  1  1  0
  5  1  1  0
  6  5  1  0
  7  6  1  0
  8  6  1  0
  9  8  1  0
 10  9  1  0
 11 10  1  0
 12 10  1  0
  9 13  1  6
 14 13  1  0
 15 14  1  0
 16 14  1  0
M  END
