
     RDKit          3D

 33 36  0  0  0  0  0  0  0  0999 V2000
   48.1150   35.9940   24.5620 N   0  0  0  0  0  0  0  0  0  0  0  0
   48.9590   35.1420   23.9310 C   0  0  0  0  0  0  0  0  0  0  0  0
   48.8370   34.8580   22.6880 N   0  0  0  0  0  0  0  0  0  0  0  0
   47.7330   35.4860   21.9510 C   0  0  0  0  0  0  0  0  0  0  0  0
   46.8960   36.3310   22.5470 C   0  0  0  0  0  0  0  0  0  0  0  0
   47.0430   36.6540   24.0150 C   0  0  0  0  0  0  0  0  0  0  0  0
   47.3020   35.3990   20.5530 N   0  0  0  0  0  0  0  0  0  0  0  0
   46.1290   36.2710   20.3980 C   0  0  0  0  0  0  0  0  0  0  0  0
   45.8570   36.8420   21.5860 C   0  0  0  0  0  0  0  0  0  0  0  0
   44.7620   37.8150   21.9320 C   0  0  0  0  0  0  0  0  0  0  0  0
   44.7420   38.9920   20.9580 C   0  0  0  0  0  0  0  0  0  0  0  0
   45.8290   39.9780   21.3210 C   0  0  0  0  0  0  0  0  0  0  0  0
   45.6670   40.9350   22.3860 C   0  0  0  0  0  0  0  0  0  0  0  0
   46.7320   41.8640   22.7000 C   0  0  0  0  0  0  0  0  0  0  0  0
   47.9460   41.8090   21.9380 C   0  0  0  0  0  0  0  0  0  0  0  0
   48.0880   40.8570   20.8910 C   0  0  0  0  0  0  0  0  0  0  0  0
   47.0410   39.9530   20.5880 C   0  0  0  0  0  0  0  0  0  0  0  0
   49.1330   42.7450   22.1830 C   0  0  0  0  0  0  0  0  0  0  0  0
   46.3270   37.4030   24.6220 O   0  0  0  0  0  0  0  0  0  0  0  0
   50.0210   34.5680   24.7570 N   0  0  0  0  0  0  0  0  0  0  0  0
   50.0210   44.9050   22.8890 C   0  0  1  0  0  0  0  0  0  0  0  0
   50.2800   45.7650   21.6370 C   0  0  0  0  0  0  0  0  0  0  0  0
   49.8980   45.7960   24.1410 C   0  0  0  0  0  0  0  0  0  0  0  0
   48.4580   45.9940   24.5280 O   0  0  0  0  0  0  0  0  0  0  0  0
   50.8450   46.2860   24.7350 O   0  0  0  0  0  0  0  0  0  0  0  0
   48.8680   44.0130   22.6860 N   0  0  0  0  0  0  0  0  0  0  0  0
   50.2630   42.3940   21.9240 O   0  0  0  0  0  0  0  0  0  0  0  0
   49.9920   47.2480   21.8620 C   0  0  0  0  0  0  0  0  0  0  0  0
   49.0520   47.7120   20.8010 C   0  0  0  0  0  0  0  0  0  0  0  0
   47.9580   46.8980   20.3140 N   0  0  0  0  0  0  0  0  0  0  0  0
   47.4810   47.6910   19.4710 N   0  0  0  0  0  0  0  0  0  0  0  0
   48.1130   48.8920   19.3560 N   0  0  0  0  0  0  0  0  0  0  0  0
   49.1210   48.8340   20.2520 N   0  0  0  0  0  0  0  0  0  0  0  0
  2  1  1  0
  3  2  1  0
  4  3  1  0
  5  4  1  0
  6  5  1  0
  6  1  1  0
  7  4  1  0
  8  7  1  0
  9  8  1  0
  9  5  1  0
 10  9  1  0
 11 10  1  0
 12 11  1  0
 13 12  1  0
 14 13  1  0
 15 14  1  0
 16 15  1  0
 17 16  1  0
 17 12  1  0
 18 15  1  0
 19  6  1  0
 20  2  1  0
 21 22  1  6
 23 21  1  0
 24 23  1  0
 25 23  1  0
 26 18  1  0
 26 21  1  0
 27 18  1  0
 28 22  1  0
 29 28  1  0
 30 29  1  0
 31 30  1  0
 32 31  1  0
 33 32  1  0
 33 29  1  0
M  END
