
     RDKit          3D

 20 21  0  0  0  0  0  0  0  0999 V2000
   44.0580   34.1730   24.7480 N   0  0  0  0  0  0  0  0  0  0  0  0
   43.2830   35.1820   25.3350 C   0  0  0  0  0  0  0  0  0  0  0  0
   42.3170   35.7250   24.5150 N   0  0  0  0  0  0  0  0  0  0  0  0
   42.2350   35.5690   23.1510 C   0  0  0  0  0  0  0  0  0  0  0  0
   43.0480   34.4970   22.4440 C   0  0  0  0  0  0  0  0  0  0  0  0
   43.7520   33.5330   23.4170 C   0  0  0  0  0  0  0  0  0  0  0  0
   43.4280   35.5930   26.4870 O   0  0  0  0  0  0  0  0  0  0  0  0
   41.4930   36.3100   22.5110 O   0  0  0  0  0  0  0  0  0  0  0  0
   45.3130   33.6940   25.3450 C   0  0  1  0  0  0  0  0  0  0  0  0
   45.2040   32.4710   26.2620 C   0  0  0  0  0  0  0  0  0  0  0  0
   46.6270   31.9220   26.2430 C   0  0  1  0  0  0  0  0  0  0  0  0
   47.0790   31.9580   24.7720 C   0  0  2  0  0  0  0  0  0  0  0  0
   47.5000   32.8390   26.9670 O   0  0  0  0  0  0  0  0  0  0  0  0
   46.3570   33.2170   24.3460 O   0  0  0  0  0  0  0  0  0  0  0  0
   46.5230   30.7610   23.9900 C   0  0  0  0  0  0  0  0  0  0  0  0
   47.2490   29.5660   24.4050 O   0  0  0  0  0  0  0  0  0  0  0  0
   46.5590   28.1400   24.5620 P   0  0  0  0  0  0  0  0  0  0  0  0
   47.5730   27.1490   24.9940 O   0  0  0  0  0  0  0  0  0  0  0  0
   45.5440   28.2270   25.6240 O   0  0  0  0  0  0  0  0  0  0  0  0
   45.8980   27.7410   23.2800 O   0  0  0  0  0  0  0  0  0  0  0  0
  2  1  1  0
  3  2  1  0
  4  3  1  0
  5  4  1  0
  6  5  1  0
  6  1  1  0
  7  2  1  0
  8  4  1  0
  9  1  1  6
 10  9  1  0
 11 10  1  0
 12 11  1  0
 11 13  1  1
 14 12  1  0
 14  9  1  0
 12 15  1  6
 16 15  1  0
 17 16  1  0
 18 17  1  0
 19 17  1  0
 20 17  1  0
M  END
