
     RDKit          3D

 33 36  0  0  0  0  0  0  0  0999 V2000
   13.8790   19.2360   32.6030 N   0  0  0  0  0  0  0  0  0  0  0  0
   13.0380   19.3160   31.5440 C   0  0  0  0  0  0  0  0  0  0  0  0
   13.1360   18.5310   30.5410 N   0  0  0  0  0  0  0  0  0  0  0  0
   14.2390   17.5570   30.5340 C   0  0  1  0  0  0  0  0  0  0  0  0
   15.0590   17.4380   31.5730 C   0  0  2  0  0  0  0  0  0  0  0  0
   14.9550   18.3880   32.7430 C   0  0  2  0  0  0  0  0  0  0  0  0
   14.6400   16.5220   29.5780 N   0  0  0  0  0  0  0  0  0  0  0  0
   15.8020   15.8320   30.1380 C   0  0  0  0  0  0  0  0  0  0  0  0
   16.0970   16.3780   31.3270 C   0  0  2  0  0  0  0  0  0  0  0  0
   17.1940   15.9880   32.2840 C   0  0  0  0  0  0  0  0  0  0  0  0
   17.1840   14.4810   32.5540 C   0  0  0  0  0  0  0  0  0  0  0  0
   16.1150   14.1800   33.5690 C   0  0  0  0  0  0  0  0  0  0  0  0
   16.3010   14.4480   34.9660 C   0  0  0  0  0  0  0  0  0  0  0  0
   15.2540   14.1510   35.9060 C   0  0  0  0  0  0  0  0  0  0  0  0
   14.0320   13.5890   35.4220 C   0  0  0  0  0  0  0  0  0  0  0  0
   13.8690   13.3300   34.0370 C   0  0  0  0  0  0  0  0  0  0  0  0
   14.9000   13.6240   33.1220 C   0  0  0  0  0  0  0  0  0  0  0  0
   12.8560   13.2220   36.3290 C   0  0  0  0  0  0  0  0  0  0  0  0
   15.6720   18.3530   33.7100 O   0  0  0  0  0  0  0  0  0  0  0  0
   11.9840   20.3260   31.6320 N   0  0  0  0  0  0  0  0  0  0  0  0
   11.9860   12.4410   38.4090 C   0  0  1  0  0  0  0  0  0  0  0  0
   11.6470   10.9450   38.3070 C   0  0  0  0  0  0  0  0  0  0  0  0
   12.1200   12.8240   39.8480 C   0  0  2  0  0  0  0  0  0  0  0  0
   13.5520   13.0040   40.2030 O   0  0  0  0  0  0  0  0  0  0  0  0
   11.1950   12.8940   40.6210 O   0  0  0  0  0  0  0  0  0  0  0  0
   13.1450   12.7960   37.6010 N   0  0  0  0  0  0  0  0  0  0  0  0
   11.7130   13.2830   35.9400 O   0  0  0  0  0  0  0  0  0  0  0  0
   12.0270   10.1820   39.5830 C   0  0  0  0  0  0  0  0  0  0  0  0
   12.7820    8.9690   39.1780 C   0  0  0  0  0  0  0  0  0  0  0  0
   13.7680    8.9940   38.1220 N   0  0  0  0  0  0  0  0  0  0  0  0
   14.1150    7.7910   38.1420 N   0  0  0  0  0  0  0  0  0  0  0  0
   13.4870    7.0070   39.0580 N   0  0  0  0  0  0  0  0  0  0  0  0
   12.6340    7.8400   39.6990 N   0  0  0  0  0  0  0  0  0  0  0  0
  2  1  1  0
  3  2  1  0
  4  3  1  1
  5  4  1  0
  5  6  1  6
  6  1  1  0
  7  4  1  0
  8  7  1  0
  9  8  1  0
  9  5  1  0
  9 10  1  1
 11 10  1  0
 12 11  1  0
 13 12  1  0
 14 13  1  0
 15 14  1  0
 16 15  1  0
 17 16  1  0
 17 12  1  0
 18 15  1  0
  6 19  1  1
 20  2  1  0
 21 22  1  1
 23 21  1  0
 23 24  1  1
 25 23  1  0
 26 18  1  0
 26 21  1  0
 27 18  1  0
 28 22  1  0
 29 28  1  0
 30 29  1  0
 31 30  1  0
 32 31  1  0
 33 32  1  0
 33 29  1  0
M  END
