
     RDKit          3D

 16 17  0  0  0  0  0  0  0  0999 V2000
   19.3600   -3.1130    5.3830 C   0  0  0  0  0  0  0  0  0  0  0  0
   19.9940   -3.9940    6.0250 O   0  0  0  0  0  0  0  0  0  0  0  0
   18.1310   -2.9410    5.5920 O   0  0  0  0  0  0  0  0  0  0  0  0
   20.1440   -2.3890    4.3600 C   0  0  0  0  0  0  0  0  0  0  0  0
   20.7520   -1.0820    4.8140 C   0  0  0  0  0  0  0  0  0  0  0  0
   22.0050   -1.1860    5.6500 C   0  0  0  0  0  0  0  0  0  0  0  0
   21.9430   -0.4870    7.0140 C   0  0  0  0  0  0  0  0  0  0  0  0
   22.6120    0.7710    7.3270 C   0  0  1  0  0  0  0  0  0  0  0  0
   21.8290    2.3970    7.1820 S   0  0  0  0  0  0  0  0  0  0  0  0
   22.3660    2.8290    8.8680 C   0  0  0  0  0  0  0  0  0  0  0  0
   23.7420    2.2130    9.0780 C   0  0  2  0  0  0  0  0  0  0  0  0
   24.8100    3.0730    8.5990 N   0  0  0  0  0  0  0  0  0  0  0  0
   25.4950    2.5210    7.5910 C   0  0  0  0  0  0  0  0  0  0  0  0
   26.4790    2.9950    6.9670 O   0  0  0  0  0  0  0  0  0  0  0  0
   24.9800    1.3110    7.3080 N   0  0  0  0  0  0  0  0  0  0  0  0
   23.8590    0.9640    8.1630 C   0  0  2  0  0  0  0  0  0  0  0  0
  2  1  1  0
  3  1  1  0
  4  1  1  0
  5  4  1  0
  6  5  1  0
  7  6  1  0
  8  7  1  1
  9  8  1  0
 10  9  1  0
 11 10  1  6
 12 11  1  0
 13 12  1  0
 14 13  1  0
 15 13  1  0
 16 15  1  6
 16 11  1  0
 16  8  1  0
M  END
