
     RDKit          3D

 16 17  0  0  0  0  0  0  0  0999 V2000
   11.5240   -8.4850   23.2660 C   0  0  0  0  0  0  0  0  0  0  0  0
   10.8390   -8.9310   22.3060 O   0  0  0  0  0  0  0  0  0  0  0  0
   12.7660   -8.3100   23.1450 O   0  0  0  0  0  0  0  0  0  0  0  0
   10.8150   -8.2270   24.5380 C   0  0  0  0  0  0  0  0  0  0  0  0
    9.3600   -7.7620   24.3070 C   0  0  0  0  0  0  0  0  0  0  0  0
    9.3850   -6.4140   23.5860 C   0  0  0  0  0  0  0  0  0  0  0  0
    8.0310   -5.6530   23.6350 C   0  0  0  0  0  0  0  0  0  0  0  0
    8.0440   -4.2200   23.1310 C   0  0  2  0  0  0  0  0  0  0  0  0
    8.7270   -2.9820   24.3100 S   0  0  0  0  0  0  0  0  0  0  0  0
    8.1810   -1.6520   23.1830 C   0  0  0  0  0  0  0  0  0  0  0  0
    6.8090   -2.0560   22.6750 C   0  0  2  0  0  0  0  0  0  0  0  0
    5.7160   -1.6640   23.5520 N   0  0  0  0  0  0  0  0  0  0  0  0
    5.0560   -2.7240   24.0390 C   0  0  0  0  0  0  0  0  0  0  0  0
    4.0710   -2.7020   24.8170 O   0  0  0  0  0  0  0  0  0  0  0  0
    5.6150   -3.8600   23.5620 N   0  0  0  0  0  0  0  0  0  0  0  0
    6.7320   -3.6000   22.6760 C   0  0  2  0  0  0  0  0  0  0  0  0
  2  1  1  0
  3  1  1  0
  4  1  1  0
  5  4  1  0
  6  5  1  0
  7  6  1  0
  8  7  1  1
  9  8  1  0
 10  9  1  0
 11 10  1  1
 12 11  1  0
 13 12  1  0
 14 13  1  0
 15 13  1  0
 16 15  1  1
 16 11  1  0
 16  8  1  0
M  END
