
     RDKit          3D

 16 17  0  0  0  0  0  0  0  0999 V2000
   11.6050   24.6200   12.9880 C   0  0  1  0  0  0  0  0  0  0  0  0
   10.8280   25.0550   13.8690 O   0  0  0  0  0  0  0  0  0  0  0  0
   12.8260   24.4240   13.1780 O   0  0  0  0  0  0  0  0  0  0  0  0
   10.9040   24.1270   11.7430 C   0  0  0  0  0  0  0  0  0  0  0  0
   10.4040   22.7010   12.0810 C   0  0  0  0  0  0  0  0  0  0  0  0
    9.0990   22.4130   11.4020 C   0  0  0  0  0  0  0  0  0  0  0  0
    8.1150   21.5940   12.1950 C   0  0  0  0  0  0  0  0  0  0  0  0
    8.3570   20.1610   12.5980 C   0  0  2  0  0  0  0  0  0  0  0  0
    9.1670   19.0570   11.3730 S   0  0  0  0  0  0  0  0  0  0  0  0
    8.5820   17.6260   12.3130 C   0  0  0  0  0  0  0  0  0  0  0  0
    7.1580   17.9240   12.7420 C   0  0  2  0  0  0  0  0  0  0  0  0
    6.1470   17.6130   11.7450 N   0  0  0  0  0  0  0  0  0  0  0  0
    5.5090   18.7090   11.3000 C   0  0  0  0  0  0  0  0  0  0  0  0
    4.5810   18.7370   10.4570 O   0  0  0  0  0  0  0  0  0  0  0  0
    5.9840   19.7960   11.9530 N   0  0  0  0  0  0  0  0  0  0  0  0
    7.0260   19.4460   12.9140 C   0  0  2  0  0  0  0  0  0  0  0  0
  1  2  1  1
  3  1  1  0
  4  1  1  0
  5  4  1  0
  6  5  1  0
  7  6  1  0
  8  7  1  6
  9  8  1  0
 10  9  1  0
 11 10  1  6
 12 11  1  0
 13 12  1  0
 14 13  1  0
 15 13  1  0
 16 15  1  6
 16 11  1  0
 16  8  1  0
M  END
