
     RDKit          3D

 39 41  0  0  0  0  0  0  0  0999 V2000
   23.5650   19.5290   44.2220 C   0  0  1  0  0  0  0  0  0  0  0  0
   24.3870   18.6220   43.3220 C   0  0  1  0  0  0  0  0  0  0  0  0
   25.8370   18.6170   43.8020 C   0  0  2  0  0  0  0  0  0  0  0  0
   26.3850   20.0340   43.9780 C   0  0  1  0  0  0  0  0  0  0  0  0
   25.4350   20.8580   44.8120 C   0  0  1  0  0  0  0  0  0  0  0  0
   25.9070   22.3100   44.9510 C   0  0  0  0  0  0  0  0  0  0  0  0
   23.0570   16.8990   42.3350 C   0  0  0  0  0  0  0  0  0  0  0  0
   22.5920   15.4810   42.1640 C   0  0  0  0  0  0  0  0  0  0  0  0
   23.8910   17.2230   43.3270 N   0  0  0  0  0  0  0  0  0  0  0  0
   23.7330   19.0470   45.5340 O   0  0  0  0  0  0  0  0  0  0  0  0
   26.6550   17.9570   42.8300 O   0  0  0  0  0  0  0  0  0  0  0  0
   27.6750   20.0870   44.5850 O   0  0  0  0  0  0  0  0  0  0  0  0
   24.1520   20.8390   44.1650 O   0  0  0  0  0  0  0  0  0  0  0  0
   26.0960   22.8970   43.6650 O   0  0  0  0  0  0  0  0  0  0  0  0
   22.6490   17.7510   41.5780 O   0  0  0  0  0  0  0  0  0  0  0  0
   25.0570   17.2220   52.9310 N   0  0  0  0  0  0  0  0  0  0  0  0
   25.7990   16.8910   54.0580 C   0  0  0  0  0  0  0  0  0  0  0  0
   26.1520   15.5670   54.1280 N   0  0  0  0  0  0  0  0  0  0  0  0
   25.8490   14.5550   53.1980 C   0  0  0  0  0  0  0  0  0  0  0  0
   25.1050   15.0000   52.0820 C   0  0  0  0  0  0  0  0  0  0  0  0
   24.7370   16.2610   51.9790 C   0  0  0  0  0  0  0  0  0  0  0  0
   26.1200   17.6710   54.9470 O   0  0  0  0  0  0  0  0  0  0  0  0
   26.2370   13.4220   53.3970 O   0  0  0  0  0  0  0  0  0  0  0  0
   24.5700   18.6050   52.7450 C   0  0  1  0  0  0  0  0  0  0  0  0
   25.1350   19.3490   51.5600 C   0  0  2  0  0  0  0  0  0  0  0  0
   26.3550   20.0240   51.9250 O   0  0  0  0  0  0  0  0  0  0  0  0
   24.0260   20.3900   51.2670 C   0  0  1  0  0  0  0  0  0  0  0  0
   22.7820   19.5990   51.6240 C   0  0  2  0  0  0  0  0  0  0  0  0
   23.1880   18.5990   52.5980 O   0  0  0  0  0  0  0  0  0  0  0  0
   24.1310   21.6040   52.0440 O   0  0  0  0  0  0  0  0  0  0  0  0
   22.1280   18.9240   50.4460 C   0  0  0  0  0  0  0  0  0  0  0  0
   23.1930   18.2540   49.7380 O   0  0  0  0  0  0  0  0  0  0  0  0
   22.7890   17.2910   48.5300 P   0  0  0  0  0  0  0  0  0  0  0  0
   23.9930   16.6210   47.9900 O   0  0  0  0  0  0  0  0  0  0  0  0
   21.6820   16.3920   48.8930 O   0  0  0  0  0  0  0  0  0  0  0  0
   22.1650   18.3780   47.4600 O   0  0  0  0  0  0  0  0  0  0  0  0
   22.8250   19.6090   46.7690 P   0  0  0  0  0  0  0  0  0  0  0  0
   21.6790   20.4410   46.3170 O   0  0  0  0  0  0  0  0  0  0  0  0
   23.7510   20.3210   47.6850 O   0  0  0  0  0  0  0  0  0  0  0  0
  2  1  1  0
  3  2  1  0
  4  3  1  0
  5  4  1  0
  5  6  1  6
  8  7  1  0
  9  7  1  0
  2  9  1  1
  1 10  1  1
  3 11  1  6
  4 12  1  1
 13  5  1  0
 13  1  1  0
 14  6  1  0
 15  7  1  0
 17 16  1  0
 18 17  1  0
 19 18  1  0
 20 19  1  0
 21 20  1  0
 21 16  1  0
 22 17  1  0
 23 19  1  0
 24 16  1  6
 25 24  1  0
 25 26  1  1
 27 25  1  0
 28 27  1  0
 29 28  1  0
 29 24  1  0
 27 30  1  1
 28 31  1  6
 32 31  1  0
 33 32  1  0
 34 33  1  0
 35 33  1  0
 36 33  1  0
 37 36  1  0
 37 10  1  0
 38 37  1  0
 39 37  1  0
M  END
