
     RDKit          3D

 21 22  0  0  0  0  0  0  0  0999 V2000
   43.2750   32.4640  101.4160 N   0  0  0  0  0  0  0  0  0  0  0  0
   43.7910   33.8300  101.2370 C   0  0  0  0  0  0  0  0  0  0  0  0
   45.1500   33.8790  100.8090 N   0  0  0  0  0  0  0  0  0  0  0  0
   46.0470   32.7910  100.5610 C   0  0  0  0  0  0  0  0  0  0  0  0
   45.4830   31.4610  100.7900 C   0  0  0  0  0  0  0  0  0  0  0  0
   44.1880   31.3670  101.1750 C   0  0  0  0  0  0  0  0  0  0  0  0
   43.1410   34.8620  101.4250 O   0  0  0  0  0  0  0  0  0  0  0  0
   47.2020   33.0250  100.2040 O   0  0  0  0  0  0  0  0  0  0  0  0
   46.6680   29.9600  100.5640 Br  0  0  0  0  0  0  0  0  0  0  0  0
   41.8520   32.1920  101.8540 C   0  0  1  0  0  0  0  0  0  0  0  0
   41.1340   32.6400  100.5110 C   0  0  0  0  0  0  0  0  0  0  0  0
   39.9560   31.5890  100.3940 C   0  0  1  0  0  0  0  0  0  0  0  0
   40.4970   30.2500  100.9210 C   0  0  2  0  0  0  0  0  0  0  0  0
   38.8840   31.9750  101.2560 O   0  0  0  0  0  0  0  0  0  0  0  0
   41.4260   30.7490  101.9960 O   0  0  0  0  0  0  0  0  0  0  0  0
   41.2700   29.4060   99.8440 C   0  0  0  0  0  0  0  0  0  0  0  0
   42.0230   30.2650   98.9390 O   0  0  0  0  0  0  0  0  0  0  0  0
   42.9170   29.8050   97.7300 P   0  0  0  0  0  0  0  0  0  0  0  0
   43.2780   31.0330   96.9820 O   0  0  0  0  0  0  0  0  0  0  0  0
   44.1290   29.1670   98.2360 O   0  0  0  0  0  0  0  0  0  0  0  0
   42.2140   28.8630   96.8390 O   0  0  0  0  0  0  0  0  0  0  0  0
  2  1  1  0
  3  2  1  0
  4  3  1  0
  5  4  1  0
  6  1  1  0
  6  5  1  0
  7  2  1  0
  8  4  1  0
  9  5  1  0
 10  1  1  6
 11 10  1  0
 12 11  1  0
 13 12  1  0
 12 14  1  1
 15 13  1  0
 15 10  1  0
 13 16  1  6
 17 16  1  0
 18 17  1  0
 19 18  1  0
 20 18  1  0
 21 18  1  0
M  END
