
     RDKit          3D

 21 22  0  0  0  0  0  0  0  0999 V2000
   26.7060   39.1010   97.5560 N   0  0  0  0  0  0  0  0  0  0  0  0
   26.1830   38.1690   98.5620 C   0  0  0  0  0  0  0  0  0  0  0  0
   24.8350   37.7850   98.3350 N   0  0  0  0  0  0  0  0  0  0  0  0
   23.9590   38.2020   97.2840 C   0  0  0  0  0  0  0  0  0  0  0  0
   24.5290   39.1410   96.3470 C   0  0  0  0  0  0  0  0  0  0  0  0
   25.8130   39.5210   96.5080 C   0  0  0  0  0  0  0  0  0  0  0  0
   26.8160   37.7380   99.5180 O   0  0  0  0  0  0  0  0  0  0  0  0
   22.8140   37.7800   97.2410 O   0  0  0  0  0  0  0  0  0  0  0  0
   23.3650   39.7910   94.9780 Br  0  0  0  0  0  0  0  0  0  0  0  0
   28.1160   39.6300   97.6050 C   0  0  1  0  0  0  0  0  0  0  0  0
   28.8910   38.2910   97.2590 C   0  0  0  0  0  0  0  0  0  0  0  0
   30.1190   38.8590   96.4270 C   0  0  1  0  0  0  0  0  0  0  0  0
   29.5590   39.9980   95.5590 C   0  0  2  0  0  0  0  0  0  0  0  0
   31.0720   39.4440   97.3210 O   0  0  0  0  0  0  0  0  0  0  0  0
   28.5420   40.5670   96.5060 O   0  0  0  0  0  0  0  0  0  0  0  0
   28.9060   39.4980   94.2240 C   0  0  0  0  0  0  0  0  0  0  0  0
   28.0560   38.3300   94.4410 O   0  0  0  0  0  0  0  0  0  0  0  0
   27.2700   37.5480   93.3390 P   0  0  0  0  0  0  0  0  0  0  0  0
   26.8840   36.2370   93.9260 O   0  0  0  0  0  0  0  0  0  0  0  0
   26.0480   38.2660   92.9610 O   0  0  0  0  0  0  0  0  0  0  0  0
   28.1060   37.3410   92.1410 O   0  0  0  0  0  0  0  0  0  0  0  0
  2  1  1  0
  3  2  1  0
  4  3  1  0
  5  4  1  0
  6  5  1  0
  6  1  1  0
  7  2  1  0
  8  4  1  0
  9  5  1  0
 10  1  1  6
 11 10  1  0
 12 11  1  0
 13 12  1  0
 12 14  1  1
 15 13  1  0
 15 10  1  0
 13 16  1  6
 17 16  1  0
 18 17  1  0
 19 18  1  0
 20 18  1  0
 21 18  1  0
M  END
