
     RDKit          3D

 21 22  0  0  0  0  0  0  0  0999 V2000
   25.3130   49.7720  129.4680 N   0  0  0  0  0  0  0  0  0  0  0  0
   25.1530   50.7480  128.3670 C   0  0  0  0  0  0  0  0  0  0  0  0
   23.8920   51.3980  128.3650 N   0  0  0  0  0  0  0  0  0  0  0  0
   22.7960   51.2120  129.2660 C   0  0  0  0  0  0  0  0  0  0  0  0
   23.0150   50.2180  130.3160 C   0  0  0  0  0  0  0  0  0  0  0  0
   24.2020   49.5830  130.3720 C   0  0  0  0  0  0  0  0  0  0  0  0
   25.9980   51.0060  127.5170 O   0  0  0  0  0  0  0  0  0  0  0  0
   21.7630   51.8590  129.1070 O   0  0  0  0  0  0  0  0  0  0  0  0
   21.5510   49.8940  131.5000 Br  0  0  0  0  0  0  0  0  0  0  0  0
   26.5750   48.9710  129.6560 C   0  0  1  0  0  0  0  0  0  0  0  0
   27.5180   50.1520  130.1230 C   0  0  0  0  0  0  0  0  0  0  0  0
   28.4510   49.4260  131.1700 C   0  0  1  0  0  0  0  0  0  0  0  0
   27.5670   48.4100  131.9160 C   0  0  2  0  0  0  0  0  0  0  0  0
   29.4580   48.6870  130.4790 O   0  0  0  0  0  0  0  0  0  0  0  0
   26.6090   48.0250  130.8220 O   0  0  0  0  0  0  0  0  0  0  0  0
   26.8020   49.0170  133.1350 C   0  0  0  0  0  0  0  0  0  0  0  0
   26.2670   50.3300  132.8020 O   0  0  0  0  0  0  0  0  0  0  0  0
   25.4490   51.2590  133.7490 P   0  0  0  0  0  0  0  0  0  0  0  0
   25.5230   52.6240  133.1830 O   0  0  0  0  0  0  0  0  0  0  0  0
   24.0570   50.8120  133.7770 O   0  0  0  0  0  0  0  0  0  0  0  0
   25.9830   51.2510  135.1260 O   0  0  0  0  0  0  0  0  0  0  0  0
  2  1  1  0
  3  2  1  0
  4  3  1  0
  5  4  1  0
  6  5  1  0
  6  1  1  0
  7  2  1  0
  8  4  1  0
  9  5  1  0
 10  1  1  1
 11 10  1  0
 12 11  1  0
 13 12  1  0
 12 14  1  6
 15 10  1  0
 15 13  1  0
 13 16  1  1
 17 16  1  0
 18 17  1  0
 19 18  1  0
 20 18  1  0
 21 18  1  0
M  END
