
     RDKit          3D

 33 35  0  0  0  0  0  0  0  0999 V2000
   31.0430  -19.0410   -9.6470 C   0  0  2  0  0  0  0  0  0  0  0  0
   29.9650  -19.9170   -9.9440 O   0  0  0  0  0  0  0  0  0  0  0  0
   32.3720  -19.6630   -9.0650 C   0  0  2  0  0  0  0  0  0  0  0  0
   32.6130  -20.9530   -9.6200 O   0  0  0  0  0  0  0  0  0  0  0  0
   32.1750  -19.9210   -7.5560 C   0  0  1  0  0  0  0  0  0  0  0  0
   33.3600  -20.3820   -7.0180 O   0  0  0  0  0  0  0  0  0  0  0  0
   31.8680  -18.5480   -6.8680 C   0  0  1  0  0  0  0  0  0  0  0  0
   32.9890  -17.6780   -7.0920 O   0  0  0  0  0  0  0  0  0  0  0  0
   30.5850  -17.9640   -7.5230 C   0  0  2  0  0  0  0  0  0  0  0  0
   30.8380  -17.8280   -8.9230 O   0  0  0  0  0  0  0  0  0  0  0  0
   30.2880  -16.5270   -6.9750 C   0  0  0  0  0  0  0  0  0  0  0  0
   29.1650  -16.0800   -7.7020 O   0  0  0  0  0  0  0  0  0  0  0  0
   28.6010  -19.6860  -10.3150 C   0  0  0  0  0  0  0  0  0  0  0  0
   28.0920  -18.4070  -10.4670 C   0  0  0  0  0  0  0  0  0  0  0  0
   26.7080  -18.1620  -10.8030 C   0  0  0  0  0  0  0  0  0  0  0  0
   25.8920  -19.3330  -10.9600 C   0  0  0  0  0  0  0  0  0  0  0  0
   26.3620  -20.6740  -10.8210 C   0  0  0  0  0  0  0  0  0  0  0  0
   27.7570  -20.7820  -10.5040 C   0  0  0  0  0  0  0  0  0  0  0  0
   26.2950  -16.8070  -10.8900 N   0  0  0  0  0  0  0  0  0  0  0  0
   25.3510  -16.3630  -11.6090 O   0  0  0  0  0  0  0  0  0  0  0  0
   26.9470  -15.9130  -10.2080 O   0  0  0  0  0  0  0  0  0  0  0  0
   25.5900  -21.8650  -10.9670 C   0  0  0  0  0  0  0  0  0  0  0  0
   25.9320  -22.9640  -10.4350 O   0  0  0  0  0  0  0  0  0  0  0  0
   24.4840  -21.9750  -11.5810 N   0  0  0  0  0  0  0  0  0  0  0  0
   18.1420  -19.5290  -10.9580 O   0  0  0  0  0  0  0  0  0  0  0  0
   19.3020  -19.3080  -11.7530 C   0  0  0  0  0  0  0  0  0  0  0  0
   20.2540  -20.4750  -11.4930 C   0  0  0  0  0  0  0  0  0  0  0  0
   20.5380  -20.6360  -10.0180 N   0  0  0  0  0  0  0  0  0  0  0  0
   19.3530  -20.5780   -9.1010 C   0  0  0  0  0  0  0  0  0  0  0  0
   18.5070  -19.3760   -9.5560 C   0  0  0  0  0  0  0  0  0  0  0  0
   21.3670  -21.8990   -9.8080 C   0  0  0  0  0  0  0  0  0  0  0  0
   22.0110  -22.2100  -11.1580 C   0  0  0  0  0  0  0  0  0  0  0  0
   23.4270  -22.7690  -11.0530 C   0  0  0  0  0  0  0  0  0  0  0  0
  1  2  1  1
  3  1  1  0
  3  4  1  6
  5  3  1  0
  5  6  1  1
  7  5  1  0
  7  8  1  6
  9  7  1  0
 10  9  1  0
 10  1  1  0
  9 11  1  1
 12 11  1  0
 13  2  1  0
 14 13  1  0
 15 14  1  0
 16 15  1  0
 17 16  1  0
 18 17  1  0
 18 13  1  0
 19 15  1  0
 20 19  1  0
 21 19  1  0
 22 17  1  0
 23 22  1  0
 24 22  1  0
 26 25  1  0
 27 26  1  0
 28 27  1  0
 29 28  1  0
 30 25  1  0
 30 29  1  0
 31 28  1  0
 32 31  1  0
 33 32  1  0
 33 24  1  0
M  END
