
     RDKit          3D

 16 17  0  0  0  0  0  0  0  0999 V2000
   27.5660  -21.2620    3.7270 C   0  0  0  0  0  0  0  0  0  0  0  0
   27.3640  -21.2020    2.4900 O   0  0  0  0  0  0  0  0  0  0  0  0
   27.9590  -20.2600    4.3770 O   0  0  0  0  0  0  0  0  0  0  0  0
   27.3320  -22.5790    4.3740 C   0  0  0  0  0  0  0  0  0  0  0  0
   26.2510  -23.3980    3.6460 C   0  0  0  0  0  0  0  0  0  0  0  0
   24.8870  -22.7900    3.9170 C   0  0  0  0  0  0  0  0  0  0  0  0
   23.7140  -23.5710    3.2700 C   0  0  0  0  0  0  0  0  0  0  0  0
   22.3470  -22.9390    3.4800 C   0  0  2  0  0  0  0  0  0  0  0  0
   21.7720  -23.0130    5.2290 S   0  0  0  0  0  0  0  0  0  0  0  0
   20.1450  -22.4030    4.6550 C   0  0  0  0  0  0  0  0  0  0  0  0
   19.8340  -23.1450    3.3720 C   0  0  2  0  0  0  0  0  0  0  0  0
   19.2190  -24.4490    3.5740 N   0  0  0  0  0  0  0  0  0  0  0  0
   19.9920  -25.4520    3.1310 C   0  0  0  0  0  0  0  0  0  0  0  0
   19.7220  -26.6770    3.1280 O   0  0  0  0  0  0  0  0  0  0  0  0
   21.1310  -24.9290    2.6130 N   0  0  0  0  0  0  0  0  0  0  0  0
   21.1770  -23.4830    2.6850 C   0  0  2  0  0  0  0  0  0  0  0  0
  2  1  1  0
  3  1  1  0
  4  1  1  0
  5  4  1  0
  6  5  1  0
  7  6  1  0
  8  7  1  1
  9  8  1  0
 10  9  1  0
 11 10  1  1
 12 11  1  0
 13 12  1  0
 14 13  1  0
 15 13  1  0
 16 15  1  1
 16 11  1  0
 16  8  1  0
M  END
