
     RDKit          3D

 16 17  0  0  0  0  0  0  0  0999 V2000
   -3.1160   -7.7760    9.4160 C   0  0  1  0  0  0  0  0  0  0  0  0
   -3.5660   -8.8600    9.8590 O   0  0  0  0  0  0  0  0  0  0  0  0
   -2.4310   -7.0070   10.1390 O   0  0  0  0  0  0  0  0  0  0  0  0
   -3.3210   -7.5340    7.9570 C   0  0  0  0  0  0  0  0  0  0  0  0
   -2.0630   -7.9890    7.1980 C   0  0  0  0  0  0  0  0  0  0  0  0
   -2.3430   -8.8960    6.0330 C   0  0  0  0  0  0  0  0  0  0  0  0
   -1.8830  -10.3450    6.1640 C   0  0  0  0  0  0  0  0  0  0  0  0
   -0.5270  -10.7840    5.6390 C   0  0  2  0  0  0  0  0  0  0  0  0
    0.5280   -9.6070    4.7340 S   0  0  0  0  0  0  0  0  0  0  0  0
    1.7270  -10.9690    4.4690 C   0  0  0  0  0  0  0  0  0  0  0  0
    0.9010  -12.1910    4.1270 C   0  0  2  0  0  0  0  0  0  0  0  0
    0.5680  -12.3010    2.7170 N   0  0  0  0  0  0  0  0  0  0  0  0
   -0.7510  -12.2560    2.5060 C   0  0  0  0  0  0  0  0  0  0  0  0
   -1.3020  -12.3540    1.3870 O   0  0  0  0  0  0  0  0  0  0  0  0
   -1.3940  -12.0980    3.6880 N   0  0  0  0  0  0  0  0  0  0  0  0
   -0.4740  -12.0550    4.8120 C   0  0  2  0  0  0  0  0  0  0  0  0
  1  2  1  6
  3  1  1  0
  4  1  1  0
  5  4  1  0
  6  5  1  0
  7  6  1  0
  8  7  1  6
  9  8  1  0
 10  9  1  0
 11 10  1  6
 12 11  1  0
 13 12  1  0
 14 13  1  0
 15 13  1  0
 16 15  1  6
 16 11  1  0
 16  8  1  0
M  END
