
     RDKit          3D

 16 17  0  0  0  0  0  0  0  0999 V2000
    7.4080  -16.0990   24.0450 C   0  0  0  0  0  0  0  0  0  0  0  0
    7.0070  -14.9830   24.4470 O   0  0  0  0  0  0  0  0  0  0  0  0
    6.7640  -16.7410   23.1830 O   0  0  0  0  0  0  0  0  0  0  0  0
    8.6590  -16.6300   24.6440 C   0  0  0  0  0  0  0  0  0  0  0  0
    9.5830  -15.4990   25.1190 C   0  0  0  0  0  0  0  0  0  0  0  0
   10.3040  -14.8620   23.9330 C   0  0  0  0  0  0  0  0  0  0  0  0
   11.1450  -13.6110   24.3200 C   0  0  0  0  0  0  0  0  0  0  0  0
   11.9520  -12.9880   23.2080 C   0  0  2  0  0  0  0  0  0  0  0  0
   13.1150  -14.1100   22.3480 S   0  0  0  0  0  0  0  0  0  0  0  0
   13.7500  -12.7120   21.3850 C   0  0  0  0  0  0  0  0  0  0  0  0
   13.8110  -11.5200   22.3220 C   0  0  2  0  0  0  0  0  0  0  0  0
   15.0560  -11.4480   23.0560 N   0  0  0  0  0  0  0  0  0  0  0  0
   14.8650  -11.5730   24.3750 C   0  0  0  0  0  0  0  0  0  0  0  0
   15.7480  -11.5180   25.2520 O   0  0  0  0  0  0  0  0  0  0  0  0
   13.5530  -11.7380   24.6300 N   0  0  0  0  0  0  0  0  0  0  0  0
   12.7470  -11.7210   23.4340 C   0  0  2  0  0  0  0  0  0  0  0  0
  2  1  1  0
  3  1  1  0
  4  1  1  0
  5  4  1  0
  6  5  1  0
  7  6  1  0
  8  7  1  1
  9  8  1  0
 10  9  1  0
 11 10  1  6
 12 11  1  0
 13 12  1  0
 14 13  1  0
 15 13  1  0
 16 15  1  1
 16 11  1  0
 16  8  1  0
M  END
