
     RDKit          3D

 16 17  0  0  0  0  0  0  0  0999 V2000
   23.0850   -2.8830   -2.7300 C   0  0  1  0  0  0  0  0  0  0  0  0
   24.1920   -3.0580   -2.1600 O   0  0  0  0  0  0  0  0  0  0  0  0
   22.4800   -3.7990   -3.3250 O   0  0  0  0  0  0  0  0  0  0  0  0
   22.4430   -1.5560   -2.4750 C   0  0  0  0  0  0  0  0  0  0  0  0
   21.6030   -1.6450   -1.1890 C   0  0  0  0  0  0  0  0  0  0  0  0
   21.8870   -0.5100   -0.2190 C   0  0  0  0  0  0  0  0  0  0  0  0
   22.4810   -0.9320    1.1070 C   0  0  0  0  0  0  0  0  0  0  0  0
   21.6070   -1.2080    2.3330 C   0  0  2  0  0  0  0  0  0  0  0  0
   19.7960   -1.1360    2.2940 S   0  0  0  0  0  0  0  0  0  0  0  0
   19.8250   -1.7390    4.0230 C   0  0  0  0  0  0  0  0  0  0  0  0
   20.9410   -0.9850    4.7300 C   0  0  2  0  0  0  0  0  0  0  0  0
   20.5540    0.3100    5.2450 N   0  0  0  0  0  0  0  0  0  0  0  0
   21.1970    1.3270    4.6430 C   0  0  0  0  0  0  0  0  0  0  0  0
   21.0550    2.5550    4.8830 O   0  0  0  0  0  0  0  0  0  0  0  0
   22.0500    0.8180    3.7270 N   0  0  0  0  0  0  0  0  0  0  0  0
   22.0140   -0.6310    3.6730 C   0  0  2  0  0  0  0  0  0  0  0  0
  1  2  1  1
  3  1  1  0
  4  1  1  0
  5  4  1  0
  6  5  1  0
  7  6  1  0
  8  7  1  6
  9  8  1  0
 10  9  1  0
 11 10  1  6
 12 11  1  0
 13 12  1  0
 14 13  1  0
 15 13  1  0
 16 11  1  0
 16  8  1  0
 16 15  1  6
M  END
