
     RDKit          3D

 11 11  0  0  0  0  0  0  0  0999 V2000
   27.2180   26.0820   60.6560 C   0  0  0  0  0  0  0  0  0  0  0  0
   26.4620   26.5500   61.8980 C   0  0  2  0  0  0  0  0  0  0  0  0
   26.7240   25.5930   63.0580 C   0  0  2  0  0  0  0  0  0  0  0  0
   26.3560   24.1640   62.6560 C   0  0  1  0  0  0  0  0  0  0  0  0
   27.0850   23.7690   61.3650 C   0  0  1  0  0  0  0  0  0  0  0  0
   26.6140   22.4090   60.8770 C   0  0  0  0  0  0  0  0  0  0  0  0
   25.0780   26.6040   61.6290 O   0  0  0  0  0  0  0  0  0  0  0  0
   25.9810   25.9830   64.1910 O   0  0  0  0  0  0  0  0  0  0  0  0
   26.7040   23.2700   63.6940 O   0  0  0  0  0  0  0  0  0  0  0  0
   26.8190   24.7420   60.3360 O   0  0  0  0  0  0  0  0  0  0  0  0
   27.5360   21.8930   59.9430 O   0  0  0  0  0  0  0  0  0  0  0  0
  2  1  1  0
  3  2  1  0
  4  3  1  0
  5  4  1  0
  5  6  1  6
  2  7  1  6
  3  8  1  1
  4  9  1  1
 10  5  1  0
 10  1  1  0
 11  6  1  0
M  END
