
     RDKit          3D

 12 12  0  0  0  0  0  0  0  0999 V2000
    4.8170   12.0740   31.9490 N   0  0  0  0  0  0  0  0  0  0  0  0
    6.2630   11.8960   31.6810 C   0  0  0  0  0  0  0  0  0  0  0  0
    6.7840   10.7150   30.4230 S   0  0  0  0  0  0  0  0  0  0  0  0
    7.1170   12.6390   32.4190 N   0  0  0  0  0  0  0  0  0  0  0  0
    8.4350   12.6140   32.7480 C   0  0  0  0  0  0  0  0  0  0  0  0
    9.0500   13.8530   33.0860 C   0  0  0  0  0  0  0  0  0  0  0  0
   10.4180   13.9130   33.4450 C   0  0  0  0  0  0  0  0  0  0  0  0
   11.1910   12.7340   33.4810 C   0  0  0  0  0  0  0  0  0  0  0  0
   10.6090   11.4870   33.1460 C   0  0  0  0  0  0  0  0  0  0  0  0
    9.2410   11.4210   32.7850 C   0  0  0  0  0  0  0  0  0  0  0  0
    8.0620   11.4470   29.3710 C   0  0  0  0  0  0  0  0  0  0  0  0
    9.1260   10.4050   29.0580 C   0  0  0  0  0  0  0  0  0  0  0  0
  2  1  1  0
  3  2  1  0
  4  2  1  0
  5  4  1  0
  6  5  1  0
  7  6  1  0
  8  7  1  0
  9  8  1  0
 10  9  1  0
 10  5  1  0
 11  3  1  0
 12 11  1  0
M  END
