
     RDKit          3D

 19 22  0  0  0  0  0  0  0  0999 V2000
    3.2890   -5.3880  -25.9570 Se  0  0  0  0  0  2  0  0  0  0  0  0
   -2.0760   -9.0940  -22.3900 C   0  0  0  0  0  0  0  0  0  0  0  0
   -1.5430  -10.3570  -22.1160 O   0  0  0  0  0  0  0  0  0  0  0  0
   -2.0620   -8.1730  -21.2170 C   0  0  1  0  0  0  0  0  0  0  0  0
   -0.7060   -7.8660  -20.7650 O   0  0  0  0  0  0  0  0  0  0  0  0
   -2.7620   -6.8670  -21.4760 C   0  0  1  0  0  0  0  0  0  0  0  0
   -3.8400   -6.8010  -20.5500 O   0  0  0  0  0  0  0  0  0  0  0  0
   -1.7220   -5.7770  -21.1340 C   0  0  1  0  0  0  0  0  0  0  0  0
   -1.9940   -5.1020  -19.9160 O   0  0  0  0  0  0  0  0  0  0  0  0
   -0.2870   -6.4640  -21.0400 C   0  0  2  0  0  0  0  0  0  0  0  0
    2.0340   -3.7120  -24.9120 N   0  0  0  0  0  0  0  0  0  0  0  0
    1.1730   -3.2350  -23.9180 C   0  0  0  0  0  0  0  0  0  0  0  0
    0.6650   -4.0450  -22.9140 N   0  0  0  0  0  0  0  0  0  0  0  0
    1.0450   -5.3970  -22.9980 C   0  0  0  0  0  0  0  0  0  0  0  0
    1.9310   -5.9270  -23.9670 C   0  0  0  0  0  0  0  0  0  0  0  0
    2.5000   -5.0570  -25.0070 C   0  0  0  0  0  0  0  0  0  0  0  0
    2.1250   -7.2690  -23.7340 N   0  0  0  0  0  0  0  0  0  0  0  0
    1.3500   -7.6060  -22.6120 C   0  0  0  0  0  0  0  0  0  0  0  0
    0.6730   -6.4690  -22.1630 N   0  0  0  0  0  0  0  0  0  0  0  0
  1 16  1  0
  4  2  1  6
  2  3  1  0
  4  5  1  0
  4  6  1  0
  5 10  1  0
  6  7  1  1
  6  8  1  0
  8  9  1  1
  8 10  1  0
 10 19  1  6
 11 16  1  0
 11 12  1  0
 12 13  1  0
 13 14  1  0
 14 15  1  0
 14 19  1  0
 15 17  1  0
 15 16  1  0
 17 18  1  0
 18 19  1  0
 11  1  1  0
M  END
