
     RDKit          3D

 28 30  0  0  0  0  0  0  0  0999 V2000
   53.3840   -6.0660   83.1750 P   0  0  0  0  0  0  0  0  0  0  0  0
   53.6250   -4.5730   83.2550 O   0  0  0  0  0  0  0  0  0  0  0  0
   51.9100   -6.1950   83.1850 O   0  0  0  0  0  0  0  0  0  0  0  0
   53.9720   -6.6220   81.9940 O   0  0  0  0  0  0  0  0  0  0  0  0
   54.1170   -6.4620   84.5780 O   0  0  0  0  0  0  0  0  0  0  0  0
   55.3950   -7.2430   85.0080 P   0  0  0  0  0  0  0  0  0  0  0  0
   56.6670   -6.5230   84.7700 O   0  0  0  0  0  0  0  0  0  0  0  0
   55.1090   -7.3910   86.4820 O   0  0  0  0  0  0  0  0  0  0  0  0
   55.2230   -8.5740   84.2300 O   0  0  0  0  0  0  0  0  0  0  0  0
   54.4670   -9.6340   84.7750 C   0  0  0  0  0  0  0  0  0  0  0  0
   55.0630  -10.9490   85.1560 C   0  0  1  0  0  0  0  0  0  0  0  0
   55.9150  -11.4830   84.1220 O   0  0  0  0  0  0  0  0  0  0  0  0
   55.8350  -11.0450   86.4610 C   0  0  1  0  0  0  0  0  0  0  0  0
   55.4990  -12.1840   87.2500 O   0  0  0  0  0  0  0  0  0  0  0  0
   57.2850  -11.0960   86.0080 C   0  0  1  0  0  0  0  0  0  0  0  0
   58.0870  -11.6440   87.0340 O   0  0  0  0  0  0  0  0  0  0  0  0
   57.1680  -11.8950   84.6650 C   0  0  2  0  0  0  0  0  0  0  0  0
   58.3320  -11.5660   83.8100 N   0  0  0  0  0  0  0  0  0  0  0  0
   58.6270  -10.3210   83.2850 C   0  0  0  0  0  0  0  0  0  0  0  0
   59.7410  -10.2530   82.5980 N   0  0  0  0  0  0  0  0  0  0  0  0
   60.2410  -11.5530   82.7130 C   0  0  2  0  0  0  0  0  0  0  0  0
   61.4280  -12.0700   82.1400 C   0  0  2  0  0  0  0  0  0  0  0  0
   62.2390  -11.5060   81.4120 O   0  0  0  0  0  0  0  0  0  0  0  0
   61.5530  -13.4170   82.4500 N   0  0  0  0  0  0  0  0  0  0  0  0
   60.6400  -14.1560   83.1940 C   0  0  0  0  0  0  0  0  0  0  0  0
   61.0210  -15.4210   83.3590 N   0  0  0  0  0  0  0  0  0  0  0  0
   59.5130  -13.6800   83.6820 N   0  0  0  0  0  0  0  0  0  0  0  0
   59.3790  -12.3570   83.4240 C   0  0  0  0  0  0  0  0  0  0  0  0
  2  1  1  0
  3  1  1  0
  4  1  1  0
  5  1  1  0
  6  5  1  0
  7  6  1  0
  8  6  1  0
  9  6  1  0
 10  9  1  0
 11 10  1  6
 12 11  1  0
 13 11  1  0
 13 14  1  6
 15 13  1  0
 15 16  1  1
 17 15  1  0
 17 12  1  0
 17 18  1  6
 19 18  1  0
 20 19  1  0
 21 20  1  6
 22 21  1  0
 22 23  1  6
 24 22  1  0
 25 24  1  0
 26 25  1  0
 27 25  1  0
 28 27  1  0
 28 18  1  0
 28 21  1  0
M  END
